Version 4
SHEET 1 1708 736
WIRE 1040 256 928 256
WIRE 1040 336 928 336
WIRE 1296 416 992 416
WIRE 1312 416 1312 304
WIRE 1312 416 1296 416
WIRE 1312 448 1312 416
WIRE 1296 464 1296 416
WIRE 1120 496 992 496
WIRE 1296 496 1120 496
WIRE 1312 544 1312 512
FLAG 1312 304 VP
IOPIN 1312 304 BiDir
FLAG 1312 544 VN
IOPIN 1312 544 BiDir
FLAG 1040 256 VCP
IOPIN 1040 256 BiDir
FLAG 1040 336 VCN
IOPIN 1040 336 BiDir
FLAG 1120 496 conp
SYMBOL SPECIALFUNCTIONS\\VARISTOR 1328 416 R0
WINDOW 0 -4 28 Left 2
WINDOW 3 0 96 Left 2
SYMATTR InstName A1
SYMATTR Value Rclamp=0.0001 G=1
SYMBOL bv 992 400 R0
WINDOW 3 14 288 Left 2
SYMATTR Value V=((V(VP)-( (V(VP)/10000) / abs(V(VCP,VCN))))) + 1n
SYMATTR InstName B1
TEXT 1080 600 Top 1 ;This example schematic is supplied for informational/educational purposes only.
