Version 4
SHEET 1 1700 736
WIRE 1312 304 704 304
WIRE 704 320 704 304
WIRE 704 416 704 400
WIRE 944 416 848 416
WIRE 1296 416 992 416
WIRE 1312 416 1312 304
WIRE 1312 416 1296 416
WIRE 1376 416 1312 416
WIRE 944 432 944 416
WIRE 1312 448 1312 416
WIRE 1296 464 1296 416
WIRE 704 480 704 464
WIRE 944 496 944 480
WIRE 944 496 848 496
WIRE 1296 496 992 496
WIRE 1312 544 1312 512
WIRE 704 576 704 560
FLAG 704 416 0
FLAG 704 576 0
FLAG 1312 544 0
FLAG 1376 416 OUT
SYMBOL SPECIALFUNCTIONS\\VARISTOR 1328 416 R0
WINDOW 0 -4 28 Left 2
WINDOW 3 0 96 Left 2
SYMATTR InstName A1
SYMATTR Value Rclamp=0.01 G=1
SYMBOL VOLTAGE 704 304 R0
WINDOW 123 0 0 Left 0
WINDOW 39 0 0 Left 0
SYMATTR InstName V1
SYMATTR Value 5
SYMBOL VOLTAGE 848 400 R0
WINDOW 3 -57 136 Left 2
WINDOW 123 0 0 Left 0
WINDOW 39 0 0 Left 0
SYMATTR InstName V2
SYMATTR Value PULSE(.01 16 0 .5m .5m 0 1m)
SYMBOL bv 992 400 R0
WINDOW 3 14 288 Left 2
SYMATTR InstName B1
SYMATTR Value V=(V(OUT)-(0.05/V(n001,n003)))
TEXT 1376 568 Left 2 !.tran 0 3m 0 50n
TEXT 1080 600 Top 1 ;This example schematic is supplied for informational/educational purposes only.
