Version 4
SHEET 1 880 680
WIRE 32 160 32 128
WIRE 32 256 32 224
FLAG 32 256 0
SYMBOL ESM\\Diode\\S310FA 16 160 R0
SYMATTR InstName U1
TEXT 12 280 Left 2 !.tran 10m
